30
Mixed Species Sim
N 	 -0.173878 	 0.047797 	 -0.192334 
H 	 -0.536894 	 0.821789 	 -0.764441 
H 	 0.428590 	 0.424474 	 0.551507 
H 	 -0.959732 	 -0.464690 	 0.229499 
H 	 0.372524 	 -0.590385 	 -0.785900 
N 	 0.887868 	 -1.025386 	 2.925782 
H 	 1.687052 	 -1.669124 	 2.996896 
H 	 1.191644 	 -0.073377 	 3.169813 
H 	 0.525639 	 -1.033518 	 1.963038 
H 	 0.147136 	 -1.325524 	 3.573382 
N 	 0.216761 	 3.383041 	 -0.354400 
H 	 -0.647393 	 2.829422 	 -0.284426 
H 	 0.085504 	 4.138344 	 -1.040286 
H 	 0.439279 	 3.788930 	 0.564236 
H 	 0.989654 	 2.775467 	 -0.657122 
N 	 -0.476723 	 1.976989 	 3.571806 
H 	 -0.933522 	 2.849109 	 3.869957 
H 	 -0.998352 	 1.568313 	 2.785016 
H 	 0.487594 	 2.178783 	 3.275961 
H 	 -0.462611 	 1.311753 	 4.356288 
N 	 -0.322348 	 0.124181 	 -3.549895 
H 	 -0.533008 	 -0.761089 	 -3.070238 
H 	 0.608206 	 0.456270 	 -3.263646 
H 	 -0.334850 	 -0.025771 	 -4.567495 
H 	 -1.029741 	 0.827315 	 -3.298201 
I 	 -3.152336 	 2.163433 	 0.925619 
I 	 1.277947 	 5.170776 	 -3.457883 
I 	 3.330427 	 -1.118590 	 0.086155 
I 	 0.309795 	 -2.302683 	 6.329902 
I 	 -1.487935 	 -3.426745 	 -4.017130 
