140
Water
S 	 -2.34391777667499168 	 -6.1680106295015964 	 -2.37496238797269044 
F 	 -3.67853266850811123 	 -6.86196109389777664 	 -2.76502884828631101 
F 	 -3.08819687887885141 	 -4.81012382211207523 	 -2.24416469556142761 
F 	 -2.62634955342804766 	 -6.46716305098907274 	 -0.87641104744468179 
F 	 -1.59963867447113217 	 -7.52589743689111756 	 -2.50576008038395326 
F 	 -2.06148599992193571 	 -5.86885820801412006 	 -3.87351372850069886 
F 	 -1.00930288484187214 	 -5.47406016510541615 	 -1.98489592765906986 
S 	 0.534446898815129412 	 -5.41515933027029739 	 -6.73499457411847047 
F 	 0.746900878701047599 	 -6.85803737869289076 	 -7.2715411646498449 
F 	 1.50480303780589031 	 -5.7101159407960127 	 -5.55757130212571582 
F 	 1.72951521065072344 	 -4.91915576648532848 	 -7.59563863222787994 
F 	 -0.435909240175631596 	 -5.12020271974458208 	 -7.91241784611122512 
F 	 -0.660621413020464621 	 -5.91116289405526629 	 -5.874350516009061 
F 	 0.321992918929211225 	 -3.97228128184770402 	 -6.19844798358709603 
S 	 -1.94967466546625845 	 -0.719674054902305738 	 4.92540132096310579 
F 	 -1.73126150456078065 	 0.817825537179879047 	 4.98290519466213144 
F 	 -0.413778463950983388 	 -0.934129110009678132 	 4.82566222376524845 
F 	 -1.85893024792871731 	 -0.790526250958670462 	 6.47513078670858278 
F 	 -3.48557086698153373 	 -0.505218999794933343 	 5.02514041816096313 
F 	 -2.04041908300379937 	 -0.648821858845941013 	 3.37567185521762836 
F 	 -2.16808782637173625 	 -2.25717364698449074 	 4.86789744726408014 
S 	 -6.81095788559100157 	 -1.05584701740613118 	 -5.76068593369725868 
F 	 -7.25405996922166185 	 -2.28480260885999975 	 -6.60225868617706624 
F 	 -7.3372384054588391 	 -0.105281973071914781 	 -6.87170839562029645 
F 	 -8.20437288403540066 	 -1.02406257586373473 	 -5.07344478869353299 
F 	 -6.28467736572316404 	 -2.00641206174034759 	 -4.6496634717742209 
F 	 -5.41754288714660159 	 -1.08763145894852764 	 -6.44792707870098436 
F 	 -6.36785580196034129 	 0.173108574047737385 	 -4.91911318121745111 
S 	 -6.38188943225215688 	 3.17246508529371107 	 -2.25094561325581122 
F 	 -7.15614260524038137 	 4.43718395822124645 	 -1.78625841031326149 
F 	 -6.1002130320250636 	 2.80029280191682872 	 -0.768696579847071293 
F 	 -7.69950334750683929 	 2.34973185760265579 	 -2.20713230043555964 
F 	 -6.66356583247925016 	 3.54463736867059342 	 -3.73319464666455136 
F 	 -5.06427551699747447 	 3.99519831298476635 	 -2.2947589260760628 
F 	 -5.60763625926393239 	 1.90774621236617548 	 -2.71563281619836117 
S 	 -3.06351930530337935 	 6.61763100590536091 	 4.77477267598855981 
F 	 -3.94878859879218203 	 7.89429340876078722 	 4.81147944840517638 
F 	 -4.32823038924006198 	 5.7351453669885597 	 4.96619099087328131 
F 	 -3.24162082740113799 	 6.53845900175608197 	 3.23304389258161784 
F 	 -1.79880822136669716 	 7.50011664482216212 	 4.58335436110383831 
F 	 -2.8854177832056207 	 6.69680301005463985 	 6.31650145939550178 
F 	 -2.17825001181457667 	 5.34096860304993459 	 4.73806590357194324 
S 	 2.22159024859904708 	 -1.84193250972511602 	 -4.30081862596786646 
F 	 3.30968688629570673 	 -2.95064766769477593 	 -4.25943740412103011 
F 	 1.12149757480298318 	 -2.91253849039354629 	 -4.05892000419168575 
F 	 2.36566597901000675 	 -1.64326310431678113 	 -2.76631914689944836 
F 	 3.32168292239511098 	 -0.77132652905668575 	 -4.54271724774404717 
F 	 2.07751451818808741 	 -2.04060191513345091 	 -5.83531810503628456 
F 	 1.13349361090238743 	 -0.733217351755456326 	 -4.34219984781470281 
S 	 -1.75152410530108193 	 -4.62293344380608229 	 6.99588373811730246 
F 	 -2.40127633672536067 	 -3.24800343044709061 	 6.67603143450856962 
F 	 -0.448154792947650815 	 -4.17385844375009984 	 6.27861385868553423 
F 	 -1.20933735391876152 	 -4.05476524451175191 	 8.33682908522736454 
F 	 -3.05489341765451305 	 -5.07200844386206473 	 7.7131536175490707 
F 	 -2.29371085668340235 	 -5.19110164310041267 	 5.65493839100724038 
F 	 -1.10177187387680298 	 -5.99786345716507441 	 7.31573604172603531 
S 	 -0.832868554198981093 	 4.40184574485147984 	 2.10040514092340835 
F 	 -0.771260264772693938 	 3.47572833708888584 	 3.34677064337967423 
F 	 0.50233003890516259 	 5.07021318495909679 	 2.5310391873905993 
F 	 -0.0401736976200561813 	 3.3480395425338596 	 1.27818658584803568 
F 	 -2.168067147303125 	 3.73347830474386289 	 1.66977109445621741 
F 	 -1.625563410777906 	 5.45565194716910007 	 2.92262369599878102 
F 	 -0.894476843625268248 	 5.32796315261407383 	 0.854039638467142703 
S 	 4.65633328278809167 	 -6.69971453035151931 	 -2.62567507887553653 
F 	 3.26281325002589462 	 -6.01458303298748387 	 -2.6857812317233134 
F 	 4.32018561339211438 	 -7.49668194669681398 	 -3.91670710080355899 
F 	 5.25635216803263017 	 -5.55500768202587913 	 -3.48854214207025715 
F 	 4.99248095218406895 	 -5.90274711400622465 	 -1.33464305694751406 
F 	 4.05631439754355316 	 -7.8444213786771595 	 -1.76280801568081591 
F 	 6.04985331555028871 	 -7.38484602771555476 	 -2.56556892602775966 
S 	 -1.76966040945386349 	 5.27474043015333649 	 -5.73141173265754311 
F 	 -0.859892251205315539 	 4.01489199868133806 	 -5.73586459180534813 
F 	 -3.02944627397849375 	 4.36497073897480981 	 -5.71819490410985587 
F 	 -1.75633848087818856 	 5.278868229866716 	 -4.17747431838097327 
F 	 -0.509874544929233231 	 6.18451012133186317 	 -5.74462856120523035 
F 	 -1.78298233802953821 	 5.27061263043995698 	 -7.28534914693411295 
F 	 -2.67942856770241145 	 6.53458886162533492 	 -5.72695887350973809 
S 	 -4.33392470560812271 	 -2.44266940747040806 	 0.651004104345112466 
F 	 -3.31574671269176058 	 -3.16786621282472058 	 1.57421543889679971 
F 	 -5.37406426271006499 	 -2.43325541269779055 	 1.80553304657834901 
F 	 -3.78955417325668886 	 -1.06829064955601094 	 1.13023239368235129 
F 	 -3.29378514850618043 	 -2.45208340224302557 	 -0.503524837888124077 
F 	 -4.87829523795955655 	 -3.81704816538480518 	 0.171775815007873645 
F 	 -5.35210269852448484 	 -1.71747260211609554 	 -0.27220723020657478 
S 	 3.52647324751145019 	 -5.96934383505494903 	 5.66248656003552764 
F 	 4.26877018136831854 	 -5.5603026722255553 	 4.35995188138091638 
F 	 4.78716827927823285 	 -6.74373765106035616 	 6.1377530690713904 
F 	 4.05045731107182583 	 -4.68563220667271718 	 6.36422807675731494 
F 	 2.26577821574466798 	 -5.1949500190495419 	 5.18722005099966488 
F 	 3.00248918395107411 	 -7.25305546343718088 	 4.96074504331374033 
F 	 2.78417631365458185 	 -6.37838499788434277 	 6.96502123869013889 
S 	 -6.27856770566196598 	 -5.16016650230604412 	 5.79624577607734537 
F 	 -5.98160397733350369 	 -3.74451388429322707 	 6.36427412851295848 
F 	 -5.7073839583734074 	 -4.72677951166050825 	 4.41753592872997558 
F 	 -4.86418527120844768 	 -5.63241578123896502 	 6.23376028744431387 
F 	 -6.84975145295052457 	 -5.59355349295158 	 7.17495562342471516 
F 	 -7.69295014011548428 	 -4.68791722337312322 	 5.35873126471037686 
F 	 -6.57553143399042828 	 -6.57581912031886162 	 5.22821742364173225 
S 	 -3.19232153718911693 	 0.7752514761443281 	 -5.66981386671749465 
F 	 -4.35107020584188575 	 0.412986213198990537 	 -4.6997719077494402 
F 	 -2.29320776418017314 	 -0.298866760836064449 	 -4.99692425008505303 
F 	 -3.70594780801359169 	 -0.287739536164467902 	 -6.68033559417795075 
F 	 -4.09143531019806073 	 1.84936971312472065 	 -6.34270348334993628 
F 	 -2.67869526636464217 	 1.8382424884531241 	 -4.65929213925703856 
F 	 -2.03357286853634811 	 1.13751673908966566 	 -6.63985582568554911 
S 	 2.35372126477926757 	 3.69375522035724302 	 -6.87580605878075968 
F 	 2.78163673335233597 	 2.44194287839292157 	 -7.69114047622043362 
F 	 1.06386125049445335 	 3.8120553083639237 	 -7.73439922945403691 
F 	 1.60002006715180567 	 2.78058111336372349 	 -5.86934515292722558 
F 	 3.6435812790640818 	 3.57545513235056234 	 -6.01721288810748245 
F 	 3.10742246240672948 	 4.60692932735076255 	 -7.88226696463429377 
F 	 1.92580579620619918 	 4.94556756232156403 	 -6.06047164134108574 
S 	 4.63431038165478348 	 6.54120336727450713 	 -1.00570805918750228 
F 	 4.27441638816996239 	 5.09952259118361884 	 -1.46062437380319277 
F 	 6.14448743767610761 	 6.17701203837339996 	 -1.04627818883988843 
F 	 4.70328554327339532 	 6.9926867178016554 	 -2.49107710803578986 
F 	 3.12413332563345936 	 6.9053946961756143 	 -0.965137929535116124 
F 	 4.56533522003617165 	 6.08972001674735886 	 0.479660989660785519 
F 	 4.99420437513960458 	 7.98288414336539542 	 -0.550791744571811792 
S 	 3.32133506499999243 	 -1.85703136129862734 	 2.20969216625422238 
F 	 2.66898531751298274 	 -0.634093721695131451 	 2.9123865070558721 
F 	 2.40187801088701347 	 -1.63866103026414156 	 0.976067780889790626 
F 	 4.39089316655199191 	 -0.923407278401812137 	 1.57778430964887573 
F 	 4.24079211911297094 	 -2.07540169233311289 	 3.44331655161865413 
F 	 2.25177696344799294 	 -2.79065544419544231 	 2.84160002285956903 
F 	 3.97368481248700212 	 -3.079969000902123 	 1.50699782545257266 
S 	 2.99984399199236851 	 4.10142254500455028 	 6.53998576186871894 
F 	 3.75648160475476534 	 5.37784833189988909 	 7.00167043077362994 
F 	 1.65114312727258472 	 4.74881385929613131 	 6.96046936878333877 
F 	 2.84680314627682174 	 4.70684611303641631 	 5.11697599281784044 
F 	 4.3485448567121523 	 3.45403123071296969 	 6.1195021549540991 
F 	 3.15288483770791528 	 3.49599897697268425 	 7.96299553091959744 
F 	 2.24320637922997168 	 2.82499675810921191 	 6.07830109296380794 
S 	 -5.61261620764318536 	 6.86961208955024727 	 -4.04679913889862064 
F 	 -6.13952275438424699 	 6.21298033823545204 	 -5.35298451401452446 
F 	 -4.76920028262938533 	 7.86715863580451824 	 -4.88850363899903684 
F 	 -6.80674143911370688 	 7.86392171497959058 	 -4.06494577340845886 
F 	 -6.45603213265698539 	 5.8720655432959763 	 -3.20509463879820444 
F 	 -4.41849097617266384 	 5.87530246412090396 	 -4.02865250438878242 
F 	 -5.08570966090212373 	 7.5262438408650425 	 -2.74061376378271682 
