6
H2O
O 	 0.112580 	 -0.124258 	 -0.142888 
H 	 0.512199 	 -0.969246 	 -0.349637 
H 	 -0.829445 	 -0.282559 	 -0.205942 
O 	 -2.785074 	 2.390300 	 -1.771068 
H 	 -2.530227 	 3.198488 	 -1.325725 
H 	 -1.957974 	 1.939772 	 -1.942456 
6
H2O
O 	 -1.805965 	 0.393553 	 0.793390 
H 	 -1.879549 	 -0.560509 	 0.765172 
H 	 -2.247031 	 0.644270 	 1.605207 
O 	 -2.785074 	 2.390300 	 -1.771068 
H 	 -2.530227 	 3.198488 	 -1.325725 
H 	 -1.957974 	 1.939772 	 -1.942456 
6
H2O
O 	 -1.805965 	 0.393553 	 0.793390 
H 	 -1.879549 	 -0.560509 	 0.765172 
H 	 -2.247031 	 0.644270 	 1.605207 
O 	 -2.785074 	 2.390300 	 -1.771068 
H 	 -2.530227 	 3.198488 	 -1.325725 
H 	 -1.957974 	 1.939772 	 -1.942456 
6
H2O
O 	 -1.805965 	 0.393553 	 0.793390 
H 	 -1.879549 	 -0.560509 	 0.765172 
H 	 -2.247031 	 0.644270 	 1.605207 
O 	 4.654023 	 20.578152 	 -21.642364 
H 	 4.643553 	 20.689087 	 -20.691560 
H 	 5.304877 	 19.893335 	 -21.796831 
6
H2O
O 	 -1.805965 	 0.393553 	 0.793390 
H 	 -1.879549 	 -0.560509 	 0.765172 
H 	 -2.247031 	 0.644270 	 1.605207 
O 	 4.654023 	 20.578152 	 -21.642364 
H 	 4.643553 	 20.689087 	 -20.691560 
H 	 5.304877 	 19.893335 	 -21.796831 
