50
Water
S 	 3.0187559755201514 	 3.89063246642496363 	 0.944298035780081535 
F 	 4.55718177936940894 	 4.43393078714343147 	 0.974077067921133244 
F 	 1.41098824276586177 	 3.62187897977571005 	 0.869009982757043886 
F 	 2.87063681805869608 	 4.63821803809705635 	 -0.39833632554865317 
F 	 2.70048538103667379 	 4.98961936657823557 	 1.98084138845696578 
S 	 -0.58787232700962011 	 0.149552191756659292 	 4.47968796126499313 
F 	 0.725220683854237436 	 0.96400044250501038 	 5.00435414244445553 
F 	 -1.93641964619288087 	 -0.442686390678718844 	 3.77720137819128476 
F 	 -0.0311369026910039981 	 0.341158463245003263 	 3.0525148098796735 
F 	 -1.3830713522631346 	 1.45251513287544465 	 4.71085150576746425 
S 	 -2.51087658660193691 	 3.99189061298250358 	 -3.94750835297310099 
F 	 -1.04106784465815538 	 4.0743383807500706 	 -3.24346400941526491 
F 	 -4.06963015198221179 	 3.81373648462666637 	 -4.39624239331777034 
F 	 -3.03866428797613874 	 4.80231499928462213 	 -2.74412023754027423 
F 	 -2.58132655750457296 	 2.53775085159401126 	 -3.43369432440942068 
S 	 -0.720317636167782105 	 -1.92026317309051242 	 -0.174999949858511888 
F 	 0.426235226551433755 	 -2.97541982021126383 	 0.309638877545220348 
F 	 -1.65809407398862074 	 -0.669238224846482543 	 -0.642253351707103404 
F 	 0.274688392969424378 	 -1.47165749092120057 	 -1.26688201487561569 
F 	 -0.311105661019881019 	 -1.05147013536162648 	 1.0338154690493413 
S 	 -2.43372335424237196 	 4.06784694211456888 	 4.75594233240368069 
F 	 -2.27389307824008835 	 2.94005692417209019 	 3.58745708718133027 
F 	 -2.83648654241065135 	 5.05763942593763627 	 5.98919269758663297 
F 	 -2.64486513762627062 	 2.89650766152565753 	 5.73923981387046389 
F 	 -3.85653410770716309 	 4.3110228917538862 	 4.20825125401918587 
S 	 0.93766820323691602 	 4.70513175059483402 	 -4.65104079536713311 
F 	 1.68864988575123687 	 6.13466814597061383 	 -4.41595354172716537 
F 	 0.41352241422013214 	 3.2121066802662348 	 -5.04974010716269373 
F 	 2.26671585033050604 	 4.03600740911055134 	 -4.23946398918362455 
F 	 1.13430548834956513 	 4.94723498334832978 	 -6.16306272073522621 
S 	 2.29910057318197669 	 -2.79472313772210512 	 5.03286371988657066 
F 	 1.10478719762576083 	 -3.87860955316066613 	 4.78463074585760673 
F 	 3.5364627218663145 	 -1.73144810369137292 	 4.99829603251492127 
F 	 1.66448209760814003 	 -1.96303293681963953 	 3.89750417323046561 
F 	 3.22326257513010628 	 -3.76504428261237356 	 4.26612258369126884 
S 	 -1.77255039538208825 	 -4.19167364381913554 	 3.39520704680081931 
F 	 -1.78324137825033935 	 -2.60490674741576544 	 3.01458869547796926 
F 	 -2.03848674951457465 	 -5.73889938337120586 	 3.84038586078264998 
F 	 -3.00665643217031375 	 -4.33274397401802247 	 2.47837993556313529 
F 	 -2.39902362314902806 	 -3.78465180885679553 	 4.74626404809838132 
S 	 3.39941893751850976 	 -2.96805729110239014 	 -2.12535306366532772 
F 	 3.62809929519854624 	 -1.77230127877252408 	 -1.03875899825345219 
F 	 3.01025256379134287 	 -4.28470110109069768 	 -3.00728980809744462 
F 	 1.88723756583478819 	 -2.80265303331751081 	 -1.86183943851594047 
F 	 3.83218076612372993 	 -3.94654579464435828 	 -1.01235353619980994 
S 	 -4.24732839004244589 	 -2.37591886773844774 	 -2.34279794369170435 
F 	 -3.27076647369261764 	 -1.09067121894109187 	 -2.58212849919187448 
F 	 -5.00735100477838202 	 -3.81408208501793311 	 -2.21292879587641345 
F 	 -3.06068976511130497 	 -3.03257501699567289 	 -1.60511103485828643 
F 	 -3.97753635662910598 	 -2.74776387469470862 	 -3.81671586864831269 
