6
SF6
O 	 -4.44534408028950789 	 4.8329078308252571 	 -3.71082294165649262 
H 	 -5.00781907498634293 	 5.49251072118803574 	 -3.30463221383781969 
H 	 -4.38207154248640407 	 4.13624398612211319 	 -3.05729323809024356 
O 	 -4.67427618677024448 	 -2.56561720641744095 	 4.93204691214606505 
H 	 -4.58838739046273858 	 -3.23781812220183207 	 5.60822295689142081 
H 	 -5.55331727908616202 	 -2.6948224279649251 	 4.57562333163419321 
