3
Water
O 	 0 	 0.0463636552105854832 	 -0.0463636552105854763 
H 	 -0.757000000000000006 	 -0.368000918564731383 	 0.368000918564731327 
H 	 0.757000000000000006 	 -0.368000918564731383 	 0.368000918564731327 
3
Water
O 	 -0.0655681099999999989 	 -0.0192044547894145157 	 -0.0463636552105854763 
H 	 0.520431889999999897 	 -0.604569028564731381 	 0.368000918564731327 
H 	 0.520431890000000008 	 0.90943097143526852 	 0.368000918564731327 
